# generated using pymatgen
data_SrTiO3
_symmetry_space_group_name_H-M   'P 1'
_cell_length_a   5.56772800
_cell_length_b   5.56772800
_cell_length_c   7.90710600
_cell_angle_alpha   90.00000000
_cell_angle_beta   90.00000000
_cell_angle_gamma   90.00000000
_symmetry_Int_Tables_number   1
_chemical_formula_structural   SrTiO3
_chemical_formula_sum   'Sr4 Ti4 O12'
_cell_volume   245.11708427
_cell_formula_units_Z   4
loop_
 _symmetry_equiv_pos_site_id
 _symmetry_equiv_pos_as_xyz
  1  'x, y, z'
loop_
 _atom_site_type_symbol
 _atom_site_label
 _atom_site_symmetry_multiplicity
 _atom_site_fract_x
 _atom_site_fract_y
 _atom_site_fract_z
 _atom_site_occupancy
  Sr  Sr0  1  0.00000000  0.50000000  0.25000000  1
  Sr  Sr1  1  0.50000000  0.00000000  0.25000000  1
  Sr  Sr2  1  0.50000000  0.00000000  0.75000000  1
  Sr  Sr3  1  0.00000000  0.50000000  0.75000000  1
  Ti  Ti4  1  0.00000000  0.00000000  0.00000000  1
  Ti  Ti5  1  0.50000000  0.50000000  0.00000000  1
  Ti  Ti6  1  0.50000000  0.50000000  0.50000000  1
  Ti  Ti7  1  0.00000000  0.00000000  0.50000000  1
  O  O8  1  0.77093350  0.27093350  0.50000000  1
  O  O9  1  0.22906650  0.27093350  0.00000000  1
  O  O10  1  0.77093350  0.72906650  0.00000000  1
  O  O11  1  0.72906650  0.22906650  0.00000000  1
  O  O12  1  0.50000000  0.50000000  0.25000000  1
  O  O13  1  0.00000000  0.00000000  0.25000000  1
  O  O14  1  0.27093350  0.77093350  0.00000000  1
  O  O15  1  0.72906650  0.77093350  0.50000000  1
  O  O16  1  0.27093350  0.22906650  0.50000000  1
  O  O17  1  0.22906650  0.72906650  0.50000000  1
  O  O18  1  0.00000000  0.00000000  0.75000000  1
  O  O19  1  0.50000000  0.50000000  0.75000000  1
